%%%%%%%%%%%%%%%%%%%%%%%%%%%%%%%%%%%%%%%%%%%%%%%%%%%%%%%%%%%%%%%%%%%%%%%%%%%%%%%%
%%                                                                            %%
%% SU2 (version 7.4.0 Blackbird) configuration file                           %%
%%                                                                            %%
%% Case description .... Burner nozzle simulation                             %%
%% Author .............. Walter Dal Maz Silva                                 %%
%% Institution ......... Imerys Aluminates                                    %%
%% Date ................ 2022.08.25                                           %%
%%                                                                            %%
%% Properties from this source:                                               %%
%% https://www.researchgate.net/publication/222456639                         %%
%%                                                                            %%
%% Alternative source in this source:                                         %%
%% https://pubs.usgs.gov/of/2005/1451/equation.html                           %%
%%%%%%%%%%%%%%%%%%%%%%%%%%%%%%%%%%%%%%%%%%%%%%%%%%%%%%%%%%%%%%%%%%%%%%%%%%%%%%%%

%%%%%%%%%%%%%%%%%%%%%%%%%%%%%%%%%%%%%%%%%%%%%%%%%%%%%%%%%%%%%%%%%%%%%%%%%%%%%%%%
%% SPECIFIC SETUP                                                             %%
%%%%%%%%%%%%%%%%%%%%%%%%%%%%%%%%%%%%%%%%%%%%%%%%%%%%%%%%%%%%%%%%%%%%%%%%%%%%%%%%

% ------------- DIRECT, ADJOINT, AND LINEARIZED PROBLEM DEFINITION ------------%

% Physical governing equations
%SOLVER= RANS
SOLVER= NAVIER_STOKES

% Specify turbulence model
%KIND_TURB_MODEL= SST

% Specify versions/corrections of the SST model
%SST_OPTIONS= V2003m

% System of measurements
SYSTEM_MEASUREMENTS= SI

% -------------------- COMPRESSIBLE FREE-STREAM DEFINITION --------------------%

% Mach number (non-dimensional, based on the free-stream values)
MACH_NUMBER= 1.0E-09

% Angle of attack (degrees, only for compressible flows)
AOA= 0.0

% Side-slip angle (degrees, only for compressible flows)
SIDESLIP_ANGLE= 0.0

% Initalization with Reynolds or thermodynamic quantities
INIT_OPTION= TD_CONDITIONS

% Free-stream temperature or density initialization
FREESTREAM_OPTION= TEMPERATURE_FS

% Free-stream pressure
FREESTREAM_PRESSURE= 103325.0

% Free-stream temperature
FREESTREAM_TEMPERATURE= 288.15

% Compressible flow non-dimensionalization
REF_DIMENSIONALIZATION= DIMENSIONAL

% ---- IDEAL GAS, POLYTROPIC, VAN DER WAALS AND PENG ROBINSON CONSTANTS -------%

% Fluid model
FLUID_MODEL= PR_GAS

% Ratio of specific heats
GAMMA_VALUE= 1.4

% Specific gas constant
GAS_CONSTANT= 518.28

% Critical Temperature
CRITICAL_TEMPERATURE= 190.53

% Critical Pressure
CRITICAL_PRESSURE= 4.595E+06

% Acentric factor
ACENTRIC_FACTOR= 0.0107

% --------------------------- VISCOSITY MODEL ---------------------------------%

% Viscosity model
VISCOSITY_MODEL= CONSTANT_VISCOSITY

% Molecular Viscosity
MU_CONSTANT= 1.20E-05

% --------------------------- THERMAL CONDUCTIVITY MODEL ----------------------%

% Laminar Conductivity model
CONDUCTIVITY_MODEL= CONSTANT_CONDUCTIVITY

% Molecular Thermal Conductivity
THERMAL_CONDUCTIVITY_CONSTANT= 0.038

% -------------------- BOUNDARY CONDITION DEFINITION --------------------------%

% Navier-Stokes (no-slip), constant heat flux wall  marker(s)
MARKER_HEATFLUX= ( walls, 0.0 )

% Riemann boundary marker(s)
MARKER_RIEMANN= ( \
    inlet,  TOTAL_CONDITIONS_PT, 103325.0, 288.15, 1.0, 0.0, 0.0,\
    outlet, STATIC_PRESSURE,     101325.0,    0.0, 0.0, 0.0, 0.0
)

% Symmetry boundary marker(s)
MARKER_SYM= ( front, back )

% ------------------------ SURFACES IDENTIFICATION ----------------------------%

% Marker(s) of the surface that is going to be analyzed in detail
MARKER_ANALYZE = ( outlet )

% Method to compute the average value in MARKER_ANALYZE
MARKER_ANALYZE_AVERAGE = MASSFLUX



%%%%%%%%%%%%%%%%%%%%%%%%%%%%%%%%%%%%%%%%%%%%%%%%%%%%%%%%%%%%%%%%%%%%%%%%%%%%%%%%
%% IO                                                                         %%
%%%%%%%%%%%%%%%%%%%%%%%%%%%%%%%%%%%%%%%%%%%%%%%%%%%%%%%%%%%%%%%%%%%%%%%%%%%%%%%%

% ------------------------- SCREEN/HISTORY VOLUME OUTPUT ----------------------%

% Screen output fields
SCREEN_OUTPUT= (      \
    INNER_ITER,       \
    WALL_TIME,        \
    RMS_DENSITY,      \
    RMS_TKE,          \
    RMS_DISSIPATION,  \
    SURFACE_MASSFLOW  \
    )

% History output groups
HISTORY_OUTPUT= (     \
    INNER_ITER,       \
    WALL_TIME,        \
    RMS_DENSITY,      \
    RMS_TKE,          \
    RMS_DISSIPATION,  \
    SURFACE_MASSFLOW  \
)

% Volume output fields/groups
VOLUME_OUTPUT= ( COORDINATES, SOLUTION, PRIMITIVE )

% List of writing frequencies corresponding to the list in OUTPUT_FILES 
OUTPUT_WRT_FREQ= 2000

% Output the performance summary to the console at the end of SU2_CFD
WRT_PERFORMANCE= YES

% ------------------------- INPUT/OUTPUT INFORMATION --------------------------%

% Mesh input file
%MESH_FILENAME= ../../mesh/generated/domain_2d.su2
MESH_FILENAME= ../../mesh/generated/nozzle_2d.su2

% Mesh input file format
MESH_FORMAT= SU2

% Output file format
TABULAR_FORMAT= CSV

% Files to output
OUTPUT_FILES= ( PARAVIEW )

% Output file convergence history (w/o extension)
CONV_FILENAME= history

% Output file flow (w/o extension) variables
VOLUME_FILENAME= solution


%%%%%%%%%%%%%%%%%%%%%%%%%%%%%%%%%%%%%%%%%%%%%%%%%%%%%%%%%%%%%%%%%%%%%%%%%%%%%%%%
%% NUMERICAL SETUP                                                            %%
%%%%%%%%%%%%%%%%%%%%%%%%%%%%%%%%%%%%%%%%%%%%%%%%%%%%%%%%%%%%%%%%%%%%%%%%%%%%%%%%

% ------------- COMMON PARAMETERS DEFINING THE NUMERICAL METHOD ---------------%

% Numerical method for spatial gradients
NUM_METHOD_GRAD= GREEN_GAUSS

% CFL number (initial value for the adaptive CFL number)
CFL_NUMBER= 10.0

% Adaptive CFL number
CFL_ADAPT= YES

% Parameters of the adaptive CFL number
CFL_ADAPT_PARAM= ( 0.1, 2.0, 10.0, 100.0 )

% Maximum Delta Time in local time stepping simulations
MAX_DELTA_TIME= 1E6

% ----------- SLOPE LIMITER AND DISSIPATION SENSOR DEFINITION -----------------%

% Monotonic Upwind Scheme for Conservation Laws (TVD) in the flow equations.
MUSCL_FLOW= YES

% Slope limiter
SLOPE_LIMITER_FLOW= VENKATAKRISHNAN

% Monotonic Upwind Scheme for Conservation Laws (TVD) in the turbulence equations.
MUSCL_TURB= YES

% ------------------------ LINEAR SOLVER DEFINITION ---------------------------%

% Linear solver or smoother for implicit formulations
LINEAR_SOLVER= FGMRES

% Preconditioner of the Krylov linear solver
LINEAR_SOLVER_PREC= ILU

% Linaer solver ILU preconditioner fill-in level (0 by default)
LINEAR_SOLVER_ILU_FILL_IN= 0

% Minimum error of the linear solver for implicit formulations
LINEAR_SOLVER_ERROR= 1E-6

% Max number of iterations of the linear solver for the implicit formulation
LINEAR_SOLVER_ITER= 20

% -------------------------- MULTIGRID PARAMETERS -----------------------------%

% Multi-grid levels (0 = no multi-grid)
MGLEVEL= 5

% -------------------- FLOW NUMERICAL METHOD DEFINITION -----------------------%

% Convective numerical method
CONV_NUM_METHOD_FLOW= ROE

% Entropy fix coefficient
ENTROPY_FIX_COEFF= 0.1

% Time discretization
TIME_DISCRE_FLOW= EULER_IMPLICIT

% -------------------- TURBULENT NUMERICAL METHOD DEFINITION ------------------%

% Convective numerical method
CONV_NUM_METHOD_TURB= SCALAR_UPWIND

% Time discretization
TIME_DISCRE_TURB= EULER_IMPLICIT

% Reduction factor of the CFL coefficient in the turbulence problem
CFL_REDUCTION_TURB= 1.0

% ------------------------------- SOLVER CONTROL ------------------------------%

% Number of iterations for single-zone problems
ITER= 2000

% Maximum number of time iterations
TIME_ITER= 1

% Min value of the residual (log10 of the residual)
CONV_RESIDUAL_MINVAL= -8

% Start convergence criteria at iteration number
CONV_STARTITER= 20
